!-Generator IDFEditor 1.44
!-Option SortedOrder

!-NOTE: All comments with '!-' are ignored by the IDFEditor and are generated automatically.
!-      Use '!' comments if they need to be retained when using the IDFEditor.


!-   ===========  ALL OBJECTS IN CLASS: VERSION ===========

! File generated by DesignBuilder - 4.2.0.054 2017/1/15 - 21:18:08
! Source file: E:\Study\DALITEK\hotel model\Hotel Models\60.dsb
Version,
    8.1.0.009;               !- Version Identifier


!-   ===========  ALL OBJECTS IN CLASS: SIMULATIONCONTROL ===========

SimulationControl,
    Yes,                     !- Do Zone Sizing Calculation
    Yes,                     !- Do System Sizing Calculation
    Yes,                     !- Do Plant Sizing Calculation
    Yes,                     !- Run Simulation for Sizing Periods
    Yes;                     !- Run Simulation for Weather File Run Periods


!-   ===========  ALL OBJECTS IN CLASS: BUILDING ===========

Building,
    Building,                !- Name
    0,                       !- North Axis {deg}
    Suburbs,                 !- Terrain
    0.04,                    !- Loads Convergence Tolerance Value
    0.4,                     !- Temperature Convergence Tolerance Value {deltaC}
    FullExterior,            !- Solar Distribution
    25,                      !- Maximum Number of Warmup Days
    6;                       !- Minimum Number of Warmup Days


!-   ===========  ALL OBJECTS IN CLASS: SURFACECONVECTIONALGORITHM:INSIDE ===========

SurfaceConvectionAlgorithm:Inside,
    TARP;                    !- Algorithm


!-   ===========  ALL OBJECTS IN CLASS: SURFACECONVECTIONALGORITHM:OUTSIDE ===========

SurfaceConvectionAlgorithm:Outside,
    DOE-2;                   !- Algorithm


!-   ===========  ALL OBJECTS IN CLASS: HEATBALANCEALGORITHM ===========

HeatBalanceAlgorithm,
    ConductionTransferFunction,  !- Algorithm
    200;                     !- Surface Temperature Upper Limit {C}


!-   ===========  ALL OBJECTS IN CLASS: TIMESTEP ===========

Timestep,
    1;                       !- Number of Timesteps per Hour


!-   ===========  ALL OBJECTS IN CLASS: CONVERGENCELIMITS ===========

ConvergenceLimits,
    1,                       !- Minimum System Timestep {minutes}
    30;                      !- Maximum HVAC Iterations


!-   ===========  ALL OBJECTS IN CLASS: SITE:LOCATION ===========

! Hourly weather file: C:\ProgramData\DesignBuilder\Weather Data\CHN_SHANGHAI_HONGQIAO_SWERA.epw
Site:Location,
    Untitled,                !- Name
    31.4,                    !- Latitude {deg}
    121.47,                  !- Longitude {deg}
    8,                       !- Time Zone {hr}
    4;                       !- Elevation {m}


!-   ===========  ALL OBJECTS IN CLASS: SIZINGPERIOD:DESIGNDAY ===========

SizingPeriod:DesignDay,
    Summer Design Day in Untitled Jul,  !- Name
    7,                       !- Month
    15,                      !- Day of Month
    SummerDesignDay,         !- Day Type
    35.1,                    !- Maximum Dry-Bulb Temperature {C}
    5.6,                     !- Daily Dry-Bulb Temperature Range {deltaC}
    ,                        !- Dry-Bulb Temperature Range Modifier Type
    ,                        !- Dry-Bulb Temperature Range Modifier Day Schedule Name
    WetBulb,                 !- Humidity Condition Type
    26.9,                    !- Wetbulb or DewPoint at Maximum Dry-Bulb {C}
    ,                        !- Humidity Condition Day Schedule Name
    ,                        !- Humidity Ratio at Maximum Dry-Bulb {kgWater/kgDryAir}
    ,                        !- Enthalpy at Maximum Dry-Bulb {J/kg}
    ,                        !- Daily Wet-Bulb Temperature Range {deltaC}
    101277,                  !- Barometric Pressure {Pa}
    0,                       !- Wind Speed {m/s}
    0,                       !- Wind Direction {deg}
    ,                        !- Rain Indicator
    ,                        !- Snow Indicator
    ,                        !- Daylight Saving Time Indicator
    ,                        !- Solar Model Indicator
    ,                        !- Beam Solar Day Schedule Name
    ,                        !- Diffuse Solar Day Schedule Name
    ,                        !- ASHRAE Clear Sky Optical Depth for Beam Irradiance (taub) {dimensionless}
    ,                        !- ASHRAE Clear Sky Optical Depth for Diffuse Irradiance (taud) {dimensionless}
    0.98;                    !- Sky Clearness

SizingPeriod:DesignDay,
    Winter Design Day in Untitled,  !- Name
    1,                       !- Month
    15,                      !- Day of Month
    WinterDesignDay,         !- Day Type
    -2,                      !- Maximum Dry-Bulb Temperature {C}
    0,                       !- Daily Dry-Bulb Temperature Range {deltaC}
    ,                        !- Dry-Bulb Temperature Range Modifier Type
    ,                        !- Dry-Bulb Temperature Range Modifier Day Schedule Name
    WetBulb,                 !- Humidity Condition Type
    -2,                      !- Wetbulb or DewPoint at Maximum Dry-Bulb {C}
    ,                        !- Humidity Condition Day Schedule Name
    ,                        !- Humidity Ratio at Maximum Dry-Bulb {kgWater/kgDryAir}
    ,                        !- Enthalpy at Maximum Dry-Bulb {J/kg}
    ,                        !- Daily Wet-Bulb Temperature Range {deltaC}
    101277,                  !- Barometric Pressure {Pa}
    7.9,                     !- Wind Speed {m/s}
    0,                       !- Wind Direction {deg}
    ,                        !- Rain Indicator
    ,                        !- Snow Indicator
    ,                        !- Daylight Saving Time Indicator
    ,                        !- Solar Model Indicator
    ,                        !- Beam Solar Day Schedule Name
    ,                        !- Diffuse Solar Day Schedule Name
    ,                        !- ASHRAE Clear Sky Optical Depth for Beam Irradiance (taub) {dimensionless}
    ,                        !- ASHRAE Clear Sky Optical Depth for Diffuse Irradiance (taud) {dimensionless}
    0;                       !- Sky Clearness


!-   ===========  ALL OBJECTS IN CLASS: RUNPERIOD ===========

RunPeriod,
    Untitled,                !- Name
    1,                       !- Begin Month
    1,                       !- Begin Day of Month
    12,                      !- End Month
    31,                      !- End Day of Month
    UseWeatherFile,          !- Day of Week for Start Day
    No,                      !- Use Weather File Holidays and Special Days
    No,                      !- Use Weather File Daylight Saving Period
    No,                      !- Apply Weekend Holiday Rule
    No,                      !- Use Weather File Rain Indicators
    No,                      !- Use Weather File Snow Indicators
    1;                       !- Number of Times Runperiod to be Repeated


!-   ===========  ALL OBJECTS IN CLASS: SITE:GROUNDTEMPERATURE:BUILDINGSURFACE ===========

Site:GroundTemperature:BuildingSurface,
    18,                      !- January Ground Temperature {C}
    18,                      !- February Ground Temperature {C}
    18,                      !- March Ground Temperature {C}
    18,                      !- April Ground Temperature {C}
    18,                      !- May Ground Temperature {C}
    18,                      !- June Ground Temperature {C}
    18,                      !- July Ground Temperature {C}
    18,                      !- August Ground Temperature {C}
    18,                      !- September Ground Temperature {C}
    18,                      !- October Ground Temperature {C}
    18,                      !- November Ground Temperature {C}
    18;                      !- December Ground Temperature {C}


!-   ===========  ALL OBJECTS IN CLASS: SITE:GROUNDTEMPERATURE:FCFACTORMETHOD ===========

!
!
!
! Site:GroundTemperature:BuildingSurface,
!     18,                      !- January Ground Temperature {C}
!     18,                      !- February Ground Temperature {C}
!     18,                      !- March Ground Temperature {C}
!     18,                      !- April Ground Temperature {C}
!     18,                      !- May Ground Temperature {C}
!     18,                      !- June Ground Temperature {C}
!     18,                      !- July Ground Temperature {C}
!     18,                      !- August Ground Temperature {C}
!     18,                      !- September Ground Temperature {C}
!     18,                      !- October Ground Temperature {C}
!     18,                      !- November Ground Temperature {C}
!     18;                      !- December Ground Temperature {C}
Site:GroundTemperature:FCfactorMethod,
    6.43,                    !- January Ground Temperature {C}
    5.49,                    !- February Ground Temperature {C}
    7.16,                    !- March Ground Temperature {C}
    9.78,                    !- April Ground Temperature {C}
    16.63,                   !- May Ground Temperature {C}
    21.92,                   !- June Ground Temperature {C}
    25.48,                   !- July Ground Temperature {C}
    26.57,                   !- August Ground Temperature {C}
    24.72,                   !- September Ground Temperature {C}
    20.61,                   !- October Ground Temperature {C}
    15.13,                   !- November Ground Temperature {C}
    10.04;                   !- December Ground Temperature {C}


!-   ===========  ALL OBJECTS IN CLASS: SITE:GROUNDTEMPERATURE:SHALLOW ===========

Site:GroundTemperature:Shallow,
    14,                      !- January Surface Ground Temperature {C}
    14,                      !- February Surface Ground Temperature {C}
    14,                      !- March Surface Ground Temperature {C}
    14,                      !- April Surface Ground Temperature {C}
    14,                      !- May Surface Ground Temperature {C}
    14,                      !- June Surface Ground Temperature {C}
    14,                      !- July Surface Ground Temperature {C}
    14,                      !- August Surface Ground Temperature {C}
    14,                      !- September Surface Ground Temperature {C}
    14,                      !- October Surface Ground Temperature {C}
    14,                      !- November Surface Ground Temperature {C}
    14;                      !- December Surface Ground Temperature {C}


!-   ===========  ALL OBJECTS IN CLASS: SITE:GROUNDTEMPERATURE:DEEP ===========

Site:GroundTemperature:Deep,
    14,                      !- January Deep Ground Temperature {C}
    14,                      !- February Deep Ground Temperature {C}
    14,                      !- March Deep Ground Temperature {C}
    14,                      !- April Deep Ground Temperature {C}
    14,                      !- May Deep Ground Temperature {C}
    14,                      !- June Deep Ground Temperature {C}
    14,                      !- July Deep Ground Temperature {C}
    14,                      !- August Deep Ground Temperature {C}
    14,                      !- September Deep Ground Temperature {C}
    14,                      !- October Deep Ground Temperature {C}
    14,                      !- November Deep Ground Temperature {C}
    14;                      !- December Deep Ground Temperature {C}


!-   ===========  ALL OBJECTS IN CLASS: SITE:GROUNDREFLECTANCE ===========

Site:GroundReflectance,
    0.2,                     !- January Ground Reflectance {dimensionless}
    0.2,                     !- February Ground Reflectance {dimensionless}
    0.2,                     !- March Ground Reflectance {dimensionless}
    0.2,                     !- April Ground Reflectance {dimensionless}
    0.2,                     !- May Ground Reflectance {dimensionless}
    0.2,                     !- June Ground Reflectance {dimensionless}
    0.2,                     !- July Ground Reflectance {dimensionless}
    0.2,                     !- August Ground Reflectance {dimensionless}
    0.2,                     !- September Ground Reflectance {dimensionless}
    0.2,                     !- October Ground Reflectance {dimensionless}
    0.2,                     !- November Ground Reflectance {dimensionless}
    0.2;                     !- December Ground Reflectance {dimensionless}


!-   ===========  ALL OBJECTS IN CLASS: SITE:GROUNDREFLECTANCE:SNOWMODIFIER ===========

Site:GroundReflectance:SnowModifier,
    2.0,                     !- Ground Reflected Solar Modifier
    2.0;                     !- Daylighting Ground Reflected Solar Modifier


!-   ===========  ALL OBJECTS IN CLASS: SCHEDULETYPELIMITS ===========

! Not limited
ScheduleTypeLimits,
    Any Number;              !- Name

ScheduleTypeLimits,
    Fraction,                !- Name
    0.0,                     !- Lower Limit Value
    1.0,                     !- Upper Limit Value
    CONTINUOUS;              !- Numeric Type

ScheduleTypeLimits,
    Temperature,             !- Name
    -60,                     !- Lower Limit Value
    200,                     !- Upper Limit Value
    CONTINUOUS;              !- Numeric Type

ScheduleTypeLimits,
    Control Type,            !- Name
    0,                       !- Lower Limit Value
    4,                       !- Upper Limit Value
    DISCRETE;                !- Numeric Type

ScheduleTypeLimits,
    On/Off,                  !- Name
    0,                       !- Lower Limit Value
    1,                       !- Upper Limit Value
    DISCRETE;                !- Numeric Type

!
! -------------------------------------------------------------
! New objects created from ExpandObjects
! -------------------------------------------------------------
!
ScheduleTypeLimits,
    HVACTemplate Any Number; !- Name


!-   ===========  ALL OBJECTS IN CLASS: SCHEDULE:COMPACT ===========

! Name
! Type
! Type
! All days in year
! All hours in day
Schedule:Compact,
    On,                      !- Name
    On/Off,                  !- Schedule Type Limits Name
    Through: 12/31,          !- Field 1
    For: AllDays,            !- Field 2
    Until: 24:00,            !- Field 3
    1;                       !- Field 4

! Name
! Type
! Type
! All days in year
! All hours in day
Schedule:Compact,
    Off,                     !- Name
    On/Off,                  !- Schedule Type Limits Name
    Through: 12/31,          !- Field 1
    For: AllDays,            !- Field 2
    Until: 24:00,            !- Field 3
    0;                       !- Field 4

! Name
! Type
! Type
! All days in year
! All hours in day
Schedule:Compact,
    OpaqueShade,             !- Name
    Any Number,              !- Schedule Type Limits Name
    Through: 12/31,          !- Field 1
    For: AllDays,            !- Field 2
    Until: 24:00,            !- Field 3
    0;                       !- Field 4

Schedule:Compact,
    Design Days Only,        !- Name
    Any Number,              !- Schedule Type Limits Name
    Through: 12/31,          !- Field 1
    For: SummerDesignDay WinterDesignDay,  !- Field 2
    Until: 24:00,            !- Field 3
    1,                       !- Field 4
    For: AllOtherDays,       !- Field 5
    Until: 24:00,            !- Field 6
    0;                       !- Field 7

! Schedule: On
Schedule:Compact,
    InfiltrationSch,         !- Name
    Any Number,              !- Schedule Type Limits Name
    Through: 12/31,          !- Field 1
    For: AllDays,            !- Field 2
    Until: 24:00,            !- Field 3
    1 ;                      !- Field 4

! Schedule: Hotel_Bed_Equip
Schedule:Compact,
    EuipmentSch,             !- Name
    Fraction,                !- Schedule Type Limits Name
    Through: 31 Dec,         !- Field 1
    For: AllDays,            !- Field 2
    Until: 17:00,            !- Field 3
    0,                       !- Field 4
    Until: 22:00,            !- Field 5
    .8,                      !- Field 6
    Until: 24:00,            !- Field 7
    0;                       !- Field 8

! Schedule: Hotel_Bed_Light
Schedule:Compact,
    LightingSch,             !- Name
    Fraction,                !- Schedule Type Limits Name
    Through: 31 Dec,         !- Field 1
    For: AllDays,            !- Field 2
    Until: 06:00,            !- Field 3
    .1,                      !- Field 4
    Until: 14:00,            !- Field 5
    .3,                      !- Field 6
    Until: 16:00,            !- Field 7
    .5,                      !- Field 8
    Until: 17:00,            !- Field 9
    .6,                      !- Field 10
    Until: 21:00,            !- Field 11
    .9,                      !- Field 12
    Until: 22:00,            !- Field 13
    .8,                      !- Field 14
    Until: 24:00,            !- Field 15
    .1;                      !- Field 16

Schedule:Compact,
    Clothing Schedule ,      !- Name
    Any Number,              !- Schedule Type Limits Name
    Through: 4/1,            !- Field 1
    For: AllDays,            !- Field 2
    Until: 24:00,            !- Field 3
    1,                       !- Field 4
    Through: 9/30,           !- Field 5
    For: AllDays,            !- Field 6
    Until: 24:00,            !- Field 7
    .5,                      !- Field 8
    Through: 12/31,          !- Field 9
    For: AllDays,            !- Field 10
    Until: 24:00,            !- Field 11
    1;                       !- Field 12

Schedule:Compact,
    Activity Schedule,       !- Name
    Any Number,              !- Schedule Type Limits Name
    Through: 12/31,          !- Field 1
    For: AllDays,            !- Field 2
    Until: 24:00,            !- Field 3
    90;                      !- Field 4

! Modified schedule: Office_OpenOff_Heat
Schedule:Compact,
    Heating SP Sch,          !- Name
    Temperature,             !- Schedule Type Limits Name
    Through: 31 Dec,         !- Field 1
    For:WinterDesignDay,     !- Field 2
    Until: 24:00,            !- Field 3
     20,                     !- Field 4
    For: AllOtherDays,       !- Field 5
    Until: 6:00,             !- Field 6
     20,                     !- Field 7
    Until: 22:00,            !- Field 8
     20,                     !- Field 9
    Until: 24:00,            !- Field 10
     20;                     !- Field 11

! Modified schedule: Office_OpenOff_Cool
Schedule:Compact,
    Cooling SP Sch,          !- Name
    Temperature,             !- Schedule Type Limits Name
    Through:12/31,           !- Field 1
    For:SummerDesignDay,     !- Field 2
    Until: 24:00,            !- Field 3
    24,                      !- Field 4
    For: AllOtherDays,       !- Field 5
    Until: 6:00,             !- Field 6
    24,                      !- Field 7
    Until: 22:00,            !- Field 8
    24,                      !- Field 9
    Until: 24:00,            !- Field 10
    24;                      !- Field 11

Schedule:Compact,
    OccupancySch,            !- Name
    Fraction,                !- Schedule Type Limits Name
    Through: 31 Dec,         !- Field 1
    For: AllDays,            !- Field 2
    Until: 24:00,            !- Field 3
    1;                       !- Field 4

Schedule:Compact,
    HeatAvailSch,            !- Name
    Any Number,              !- Schedule Type Limits Name
    Through: 4/30,           !- Field 1
    For: AllDays,            !- Field 2
    Until: 24:00,            !- Field 3
    1,                       !- Field 4
    Through: 10/31,          !- Field 5
    For: AllDays,            !- Field 6
    Until: 24:00,            !- Field 7
    1,                       !- Field 8
    Through: 12/31,          !- Field 9
    For: AllDays,            !- Field 10
    Until: 24:00,            !- Field 11
    1;                       !- Field 12

Schedule:Compact,
    CoolAvailSch,            !- Name
    Any Number,              !- Schedule Type Limits Name
    Through: 4/30,           !- Field 1
    For: AllDays,            !- Field 2
    Until: 24:00,            !- Field 3
    1,                       !- Field 4
    Through: 10/31,          !- Field 5
    For: AllDays,            !- Field 6
    Until: 24:00,            !- Field 7
    1,                       !- Field 8
    Through: 12/31,          !- Field 9
    For: AllDays,            !- Field 10
    Until: 24:00,            !- Field 11
    1;                       !- Field 12

Schedule:Compact,
    FanAvailSched,           !- Name
    Any Number,              !- Schedule Type Limits Name
    Through: 12/31,          !- Field 1
    For: AllDays,            !- Field 2
    Until: 24:00,            !- Field 3
    1 ;                      !- Field 4

Schedule:Compact,
    HVACTemplate-Always 1,   !- Name
    HVACTemplate Any Number, !- Schedule Type Limits Name
    Through: 12/31,          !- Field 1
    For: AllDays,            !- Field 2
    Until: 24:00,            !- Field 3
    1;                       !- Field 4

Schedule:Compact,
    HVACTemplate-Always 4,   !- Name
    HVACTemplate Any Number, !- Schedule Type Limits Name
    Through: 12/31,          !- Field 1
    For: AllDays,            !- Field 2
    Until: 24:00,            !- Field 3
    4;                       !- Field 4

Schedule:Compact,
    HVACTemplate-Always 12.8,!- Name
    HVACTemplate Any Number, !- Schedule Type Limits Name
    Through: 12/31,          !- Field 1
    For: AllDays,            !- Field 2
    Until: 24:00,            !- Field 3
    12.8;                    !- Field 4

Schedule:Compact,
    HVACTemplate-Always 12.2,!- Name
    HVACTemplate Any Number, !- Schedule Type Limits Name
    Through: 12/31,          !- Field 1
    For: AllDays,            !- Field 2
    Until: 24:00,            !- Field 3
    12.2;                    !- Field 4

Schedule:Compact,
    HVACTemplate-Always 82,  !- Name
    HVACTemplate Any Number, !- Schedule Type Limits Name
    Through: 12/31,          !- Field 1
    For: AllDays,            !- Field 2
    Until: 24:00,            !- Field 3
    82;                      !- Field 4

Schedule:Compact,
    HVACTemplate-Always 7.22,!- Name
    HVACTemplate Any Number, !- Schedule Type Limits Name
    Through: 12/31,          !- Field 1
    For: AllDays,            !- Field 2
    Until: 24:00,            !- Field 3
    7.22;                    !- Field 4

Schedule:Compact,
    HVACTemplate-Always 29.4,!- Name
    HVACTemplate Any Number, !- Schedule Type Limits Name
    Through: 12/31,          !- Field 1
    For: AllDays,            !- Field 2
    Until: 24:00,            !- Field 3
    29.4;                    !- Field 4


!-   ===========  ALL OBJECTS IN CLASS: MATERIAL ===========

! Urea Formaldehyde Foam- thickness .1327
Material,
    Urea Formaldehyde Foam_.1327,  !- Name
    Rough,                   !- Roughness
    0.1327,                  !- Thickness {m}
    0.04,                    !- Conductivity {W/m-K}
    10,                      !- Density {kg/m3}
    1400,                    !- Specific Heat {J/kg-K}
    0.9,                     !- Thermal Absorptance
    0.6,                     !- Solar Absorptance
    0.6;                     !- Visible Absorptance

! Cast Concrete- thickness .1
Material,
    Cast Concrete_.1,        !- Name
    Rough,                   !- Roughness
    0.1,                     !- Thickness {m}
    1.13,                    !- Conductivity {W/m-K}
    2000,                    !- Density {kg/m3}
    1000,                    !- Specific Heat {J/kg-K}
    0.9,                     !- Thermal Absorptance
    0.6,                     !- Solar Absorptance
    0.6;                     !- Visible Absorptance

! Floor/Roof Screed- thickness .07
Material,
    Floor/Roof Screed_.07,   !- Name
    Rough,                   !- Roughness
    0.07,                    !- Thickness {m}
    0.41,                    !- Conductivity {W/m-K}
    1200,                    !- Density {kg/m3}
    840,                     !- Specific Heat {J/kg-K}
    0.9,                     !- Thermal Absorptance
    0.73,                    !- Solar Absorptance
    0.73;                    !- Visible Absorptance

! Timber Flooring- thickness .03
Material,
    Timber Flooring_.03,     !- Name
    Rough,                   !- Roughness
    0.03,                    !- Thickness {m}
    0.14,                    !- Conductivity {W/m-K}
    650,                     !- Density {kg/m3}
    1200,                    !- Specific Heat {J/kg-K}
    0.9,                     !- Thermal Absorptance
    0.78,                    !- Solar Absorptance
    0.78;                    !- Visible Absorptance

! Cast Concrete (Dense)- thickness .1
Material,
    Cast Concrete (Dense)_.1,!- Name
    Rough,                   !- Roughness
    0.1,                     !- Thickness {m}
    1.4,                     !- Conductivity {W/m-K}
    2100,                    !- Density {kg/m3}
    840,                     !- Specific Heat {J/kg-K}
    0.9,                     !- Thermal Absorptance
    0.6,                     !- Solar Absorptance
    0.6;                     !- Visible Absorptance

! Brickwork, Outer Leaf- thickness .1
Material,
    Brickwork Outer Leaf_.1, !- Name
    Rough,                   !- Roughness
    0.1,                     !- Thickness {m}
    0.84,                    !- Conductivity {W/m-K}
    1700,                    !- Density {kg/m3}
    800,                     !- Specific Heat {J/kg-K}
    0.9,                     !- Thermal Absorptance
    0.7,                     !- Solar Absorptance
    0.7;                     !- Visible Absorptance

! XPS Extruded Polystyrene  - CO2 Blowing- thickness .0795
Material,
    XPS Extruded Polystyrene  - CO2 Blowing_.0795,  !- Name
    Rough,                   !- Roughness
    0.0795,                  !- Thickness {m}
    0.034,                   !- Conductivity {W/m-K}
    35,                      !- Density {kg/m3}
    1400,                    !- Specific Heat {J/kg-K}
    0.9,                     !- Thermal Absorptance
    0.6,                     !- Solar Absorptance
    0.6;                     !- Visible Absorptance

! Concrete Block (Medium)- thickness .1
Material,
    Concrete Block (Medium)_.1,  !- Name
    Rough,                   !- Roughness
    0.1,                     !- Thickness {m}
    0.51,                    !- Conductivity {W/m-K}
    1400,                    !- Density {kg/m3}
    1000,                    !- Specific Heat {J/kg-K}
    0.9,                     !- Thermal Absorptance
    0.6,                     !- Solar Absorptance
    0.6;                     !- Visible Absorptance

! Gypsum Plastering- thickness .013
Material,
    Gypsum Plastering_.013,  !- Name
    Rough,                   !- Roughness
    0.013,                   !- Thickness {m}
    0.4,                     !- Conductivity {W/m-K}
    1000,                    !- Density {kg/m3}
    1000,                    !- Specific Heat {J/kg-K}
    0.9,                     !- Thermal Absorptance
    0.5,                     !- Solar Absorptance
    0.5;                     !- Visible Absorptance

! Gypsum Plasterboard- thickness .025
Material,
    Gypsum Plasterboard_.025,!- Name
    Rough,                   !- Roughness
    0.025,                   !- Thickness {m}
    0.25,                    !- Conductivity {W/m-K}
    900,                     !- Density {kg/m3}
    1000,                    !- Specific Heat {J/kg-K}
    0.9,                     !- Thermal Absorptance
    0.5,                     !- Solar Absorptance
    0.5;                     !- Visible Absorptance

! Asphalt- thickness .01
Material,
    Asphalt_.01,             !- Name
    Rough,                   !- Roughness
    0.01,                    !- Thickness {m}
    0.7,                     !- Conductivity {W/m-K}
    2100,                    !- Density {kg/m3}
    1000,                    !- Specific Heat {J/kg-K}
    0.9,                     !- Thermal Absorptance
    0.85,                    !- Solar Absorptance
    0.9;                     !- Visible Absorptance

! MW Glass Wool (rolls)- thickness .1445
Material,
    MW Glass Wool (rolls)_.1445,  !- Name
    Rough,                   !- Roughness
    0.1445,                  !- Thickness {m}
    0.04,                    !- Conductivity {W/m-K}
    12,                      !- Density {kg/m3}
    840,                     !- Specific Heat {J/kg-K}
    0.9,                     !- Thermal Absorptance
    0.6,                     !- Solar Absorptance
    0.6;                     !- Visible Absorptance

! Plasterboard- thickness .013
Material,
    Plasterboard_.013,       !- Name
    Rough,                   !- Roughness
    0.013,                   !- Thickness {m}
    0.25,                    !- Conductivity {W/m-K}
    2800,                    !- Density {kg/m3}
    896,                     !- Specific Heat {J/kg-K}
    0.9,                     !- Thermal Absorptance
    0.5,                     !- Solar Absorptance
    0.5;                     !- Visible Absorptance


!-   ===========  ALL OBJECTS IN CLASS: MATERIAL:NOMASS ===========

!Material:InfraredTransparent,
!IRTMaterial; !- Name
!Construction,
!IRTSurface,  !- Name
!IRTMaterial; !- Outside Layer
! Material Name
! Roughness
! Resistance {M**2K/W}
! Thermal Absorptance
! Solar Absorptance
! Visible Absorptance
Material:NoMass,
    LinearBridgingLayer,     !- Name
    Rough,                   !- Roughness
    1,                       !- Thermal Resistance {m2-K/W}
    0.0100000,               !- Thermal Absorptance
    0.0100000,               !- Solar Absorptance
    0.0100000;               !- Visible Absorptance

! Special material to represent an R-value for the next construction
Material:NoMass,
    7_RVAL_2,                !- Name
    Rough,                   !- Roughness
    0.15,                    !- Thermal Resistance {m2-K/W}
    0.9,                     !- Thermal Absorptance
    0.7,                     !- Solar Absorptance
    0.7;                     !- Visible Absorptance
